
OS:Version,
  {22a8280e-a04d-4afa-9c3b-576ce7e93ac7}, !- Handle
  2.6.0;                                  !- Version Identifier

OS:Timestep,
  {b0fa043b-3e91-4705-b798-a26bbea47620}, !- Handle
  6;                                      !- Number of Timesteps per Hour

OS:Connection,
  {b742b2ef-79b6-4b4e-bc85-5c20c1c8300f}, !- Handle
  {15de7a4c-1724-4ba3-a1e6-a66b0ba90514}, !- Name
  ,                                       !- Source Object
  11,                                     !- Outlet Port
  ,                                       !- Target Object
  2;                                      !- Inlet Port

OS:Space,
  {39655c19-15b3-4081-92c2-4613ae84d8e6}, !- Handle
  Zone3 Bulk Storage,                     !- Name
  {a6aa64ea-d7e8-4be2-93e7-411cbc4acca9}, !- Space Type Name
  ,                                       !- Default Construction Set Name
  ,                                       !- Default Schedule Set Name
  0,                                      !- Direction of Relative North {deg}
  0,                                      !- X Origin {m}
  0,                                      !- Y Origin {m}
  0,                                      !- Z Origin {m}
  {db75d8b1-6332-4998-b7c2-ad46d4bbd08b}, !- Building Story Name
  {8ca068da-d33a-45c9-976d-f416402742fd}, !- Thermal Zone Name
  Yes;                                    !- Part of Total Floor Area

OS:Surface,
  {516ff702-eb03-4a25-9228-e1ad9dc5895c}, !- Handle
  Bulk Storage Roof,                      !- Name
  RoofCeiling,                            !- Surface Type
  ,                                       !- Construction Name
  {39655c19-15b3-4081-92c2-4613ae84d8e6}, !- Space Name
  Outdoors,                               !- Outside Boundary Condition
  ,                                       !- Outside Boundary Condition Object
  SunExposed,                             !- Sun Exposure
  WindExposed,                            !- Wind Exposure
  ,                                       !- View Factor to Ground
  ,                                       !- Number of Vertices
  45.7177703814647, 30.4785135876431, 8.53398380454007, !- X,Y,Z Vertex 1 {m}
  45.7177703814647, 100.579094839222, 8.53398380454007, !- X,Y,Z Vertex 2 {m}
  0, 100.579094839222, 8.53398380454007,  !- X,Y,Z Vertex 3 {m}
  0, 30.4785135876431, 8.53398380454007;  !- X,Y,Z Vertex 4 {m}

OS:WindowProperty:FrameAndDivider,
  {6bce9be8-2ab5-46ae-a571-5c172afed1ee}, !- Handle
  Skylight_Frame,                         !- Name
  0.7129,                                 !- Frame Width {m}
  ,                                       !- Frame Outside Projection {m}
  ,                                       !- Frame Inside Projection {m}
  283.91,                                 !- Frame Conductance {W/m2-K}
  1,                                      !- Ratio of Frame-Edge Glass Conductance to Center-Of-Glass Conductance
  0.7,                                    !- Frame Solar Absorptance
  0.7,                                    !- Frame Visible Absorptance
  0.9,                                    !- Frame Thermal Hemispherical Emissivity
  ,                                       !- Divider Type
  ,                                       !- Divider Width {m}
  ,                                       !- Number of Horizontal Dividers
  ,                                       !- Number of Vertical Dividers
  ,                                       !- Divider Outside Projection {m}
  ,                                       !- Divider Inside Projection {m}
  ,                                       !- Divider Conductance {W/m2-K}
  1,                                      !- Ratio of Divider-Edge Glass Conductance to Center-Of-Glass Conductance
  ,                                       !- Divider Solar Absorptance
  ,                                       !- Divider Visible Absorptance
  0.9;                                    !- Divider Thermal Hemispherical Emissivity

OS:SubSurface,
  {5985fe05-ad32-4b65-b0c2-46302891e062}, !- Handle
  Fine Storage Left Wall_Door,            !- Name
  Door,                                   !- Sub Surface Type
  ,                                       !- Construction Name
  {e7c4e556-9445-43b4-bfcc-f9fc21f24f21}, !- Surface Name
  ,                                       !- Outside Boundary Condition Object
  ,                                       !- View Factor to Ground
  ,                                       !- Shading Control Name
  ,                                       !- Frame and Divider Name
  1,                                      !- Multiplier
  ,                                       !- Number of Vertices
  0, 20.2682115357827, 2.13349595113502,  !- X,Y,Z Vertex 1 {m}
  0, 20.2682115357827, 0,                 !- X,Y,Z Vertex 2 {m}
  0, 19.3538561281534, 0,                 !- X,Y,Z Vertex 3 {m}
  0, 19.3538561281534, 2.13349595113502;  !- X,Y,Z Vertex 4 {m}

OS:Surface,
  {e7c4e556-9445-43b4-bfcc-f9fc21f24f21}, !- Handle
  Fine Storage Left Wall,                 !- Name
  Wall,                                   !- Surface Type
  ,                                       !- Construction Name
  {cdd6a95f-f907-4c0e-817d-962525d358d0}, !- Space Name
  Outdoors,                               !- Outside Boundary Condition
  ,                                       !- Outside Boundary Condition Object
  SunExposed,                             !- Sun Exposure
  WindExposed,                            !- Wind Exposure
  ,                                       !- View Factor to Ground
  ,                                       !- Number of Vertices
  0, 30.4785135876431, 8.53398380454007,  !- X,Y,Z Vertex 1 {m}
  0, 30.4785135876431, 0,                 !- X,Y,Z Vertex 2 {m}
  0, 9.14355407629293, 0,                 !- X,Y,Z Vertex 3 {m}
  0, 9.14355407629293, 8.53398380454007;  !- X,Y,Z Vertex 4 {m}

OS:Connection,
  {dc04fefb-3f18-45be-8f68-9d2cd3eb4a21}, !- Handle
  {e66b1d83-cc39-44fb-8764-30d98d02c75a}, !- Name
  ,                                       !- Source Object
  11,                                     !- Outlet Port
  ,                                       !- Target Object
  2;                                      !- Inlet Port

OS:Space,
  {cdd6a95f-f907-4c0e-817d-962525d358d0}, !- Handle
  Zone2 Fine Storage,                     !- Name
  {f6907e5f-7752-47ad-bfcd-c6fb8b1f86ab}, !- Space Type Name
  ,                                       !- Default Construction Set Name
  ,                                       !- Default Schedule Set Name
  0,                                      !- Direction of Relative North {deg}
  0,                                      !- X Origin {m}
  0,                                      !- Y Origin {m}
  0,                                      !- Z Origin {m}
  {db75d8b1-6332-4998-b7c2-ad46d4bbd08b}, !- Building Story Name
  {e58c3c65-acf7-4056-bd52-6bec484efb2f}, !- Thermal Zone Name
  Yes;                                    !- Part of Total Floor Area

OS:Surface,
  {b8444fba-ff4e-4e81-b369-e9f3efc4a2d6}, !- Handle
  Office Roof,                            !- Name
  RoofCeiling,                            !- Surface Type
  ,                                       !- Construction Name
  {12c3d4a0-20ec-4e1f-8040-e70cdfba4a69}, !- Space Name
  Surface,                                !- Outside Boundary Condition
  {a273ffc4-632f-4b89-9d6d-f94185f45049}, !- Outside Boundary Condition Object
  NoSun,                                  !- Sun Exposure
  NoWind,                                 !- Wind Exposure
  ,                                       !- View Factor to Ground
  ,                                       !- Number of Vertices
  25.9067365494966, 0, 4.26699190227003,  !- X,Y,Z Vertex 1 {m}
  25.9067365494966, 9.14355407629293, 4.26699190227003, !- X,Y,Z Vertex 2 {m}
  0, 9.14355407629293, 4.26699190227003,  !- X,Y,Z Vertex 3 {m}
  0, 0, 4.26699190227003;                 !- X,Y,Z Vertex 4 {m}

OS:Connection,
  {3386e9fe-e830-491d-a1bc-dbb0ba0af916}, !- Handle
  {20ab44d7-01dc-49cd-b623-cd8f0a86b916}, !- Name
  ,                                       !- Source Object
  11,                                     !- Outlet Port
  ,                                       !- Target Object
  2;                                      !- Inlet Port

OS:Space,
  {12c3d4a0-20ec-4e1f-8040-e70cdfba4a69}, !- Handle
  Zone1 Office,                           !- Name
  {b0aef65a-6c0f-43e9-b00a-681a7595a4b8}, !- Space Type Name
  ,                                       !- Default Construction Set Name
  ,                                       !- Default Schedule Set Name
  0,                                      !- Direction of Relative North {deg}
  0,                                      !- X Origin {m}
  0,                                      !- Y Origin {m}
  0,                                      !- Z Origin {m}
  {db75d8b1-6332-4998-b7c2-ad46d4bbd08b}, !- Building Story Name
  {693b99aa-8ec1-4037-b099-d901bf9df149}, !- Thermal Zone Name
  Yes;                                    !- Part of Total Floor Area

OS:Surface,
  {a273ffc4-632f-4b89-9d6d-f94185f45049}, !- Handle
  Office Roof Reversed,                   !- Name
  Floor,                                  !- Surface Type
  ,                                       !- Construction Name
  {cdd6a95f-f907-4c0e-817d-962525d358d0}, !- Space Name
  Surface,                                !- Outside Boundary Condition
  {b8444fba-ff4e-4e81-b369-e9f3efc4a2d6}, !- Outside Boundary Condition Object
  NoSun,                                  !- Sun Exposure
  NoWind,                                 !- Wind Exposure
  ,                                       !- View Factor to Ground
  ,                                       !- Number of Vertices
  0, 0, 4.26699190227003,                 !- X,Y,Z Vertex 1 {m}
  0, 9.14355407629293, 4.26699190227003,  !- X,Y,Z Vertex 2 {m}
  25.9067365494966, 9.14355407629293, 4.26699190227003, !- X,Y,Z Vertex 3 {m}
  25.9067365494966, 0, 4.26699190227003;  !- X,Y,Z Vertex 4 {m}

OS:Surface,
  {b8b06532-b20c-4b27-b353-fb685ea15ba8}, !- Handle
  Bulk Storage Rear Wall,                 !- Name
  Wall,                                   !- Surface Type
  ,                                       !- Construction Name
  {39655c19-15b3-4081-92c2-4613ae84d8e6}, !- Space Name
  Outdoors,                               !- Outside Boundary Condition
  ,                                       !- Outside Boundary Condition Object
  SunExposed,                             !- Sun Exposure
  WindExposed,                            !- Wind Exposure
  ,                                       !- View Factor to Ground
  ,                                       !- Number of Vertices
  45.7177703814647, 100.579094839222, 8.53398380454007, !- X,Y,Z Vertex 1 {m}
  45.7177703814647, 100.579094839222, 0,  !- X,Y,Z Vertex 2 {m}
  0, 100.579094839222, 0,                 !- X,Y,Z Vertex 3 {m}
  0, 100.579094839222, 8.53398380454007;  !- X,Y,Z Vertex 4 {m}

OS:Surface,
  {e86312f3-df9c-4a72-8bf5-276fd9968053}, !- Handle
  Bulk Storage Floor,                     !- Name
  Floor,                                  !- Surface Type
  ,                                       !- Construction Name
  {39655c19-15b3-4081-92c2-4613ae84d8e6}, !- Space Name
  Ground,                                 !- Outside Boundary Condition
  ,                                       !- Outside Boundary Condition Object
  NoSun,                                  !- Sun Exposure
  NoWind,                                 !- Wind Exposure
  ,                                       !- View Factor to Ground
  ,                                       !- Number of Vertices
  45.7177703814647, 100.579094839222, 0,  !- X,Y,Z Vertex 1 {m}
  45.7177703814647, 30.4785135876431, 0,  !- X,Y,Z Vertex 2 {m}
  0, 30.4785135876431, 0,                 !- X,Y,Z Vertex 3 {m}
  0, 100.579094839222, 0;                 !- X,Y,Z Vertex 4 {m}

OS:SubSurface,
  {21b9512b-88b8-4df7-8ddf-b5b9f2c9f530}, !- Handle
  Bulk Storage Left Wall_Door 2,          !- Name
  Door,                                   !- Sub Surface Type
  ,                                       !- Construction Name
  {2eb36d53-8956-4573-9d42-f3de2486a693}, !- Surface Name
  ,                                       !- Outside Boundary Condition Object
  ,                                       !- View Factor to Ground
  ,                                       !- Shading Control Name
  ,                                       !- Frame and Divider Name
  1,                                      !- Multiplier
  ,                                       !- Number of Vertices
  0, 75.8153025492622, 3.04785135876431,  !- X,Y,Z Vertex 1 {m}
  0, 75.8153025492622, 0,                 !- X,Y,Z Vertex 2 {m}
  0, 73.3770214622508, 0,                 !- X,Y,Z Vertex 3 {m}
  0, 73.3770214622508, 3.04785135876431;  !- X,Y,Z Vertex 4 {m}

OS:Surface,
  {2eb36d53-8956-4573-9d42-f3de2486a693}, !- Handle
  Bulk Storage Left Wall,                 !- Name
  Wall,                                   !- Surface Type
  ,                                       !- Construction Name
  {39655c19-15b3-4081-92c2-4613ae84d8e6}, !- Space Name
  Outdoors,                               !- Outside Boundary Condition
  ,                                       !- Outside Boundary Condition Object
  SunExposed,                             !- Sun Exposure
  WindExposed,                            !- Wind Exposure
  ,                                       !- View Factor to Ground
  ,                                       !- Number of Vertices
  0, 100.579094839222, 8.53398380454007,  !- X,Y,Z Vertex 1 {m}
  0, 100.579094839222, 0,                 !- X,Y,Z Vertex 2 {m}
  0, 30.4785135876431, 0,                 !- X,Y,Z Vertex 3 {m}
  0, 30.4785135876431, 8.53398380454007;  !- X,Y,Z Vertex 4 {m}

OS:SubSurface,
  {fc6efd96-2946-4c9e-b61a-a97517f30481}, !- Handle
  Bulk Storage Left Wall_Door 6,          !- Name
  Door,                                   !- Sub Surface Type
  ,                                       !- Construction Name
  {2eb36d53-8956-4573-9d42-f3de2486a693}, !- Surface Name
  ,                                       !- Outside Boundary Condition Object
  ,                                       !- View Factor to Ground
  ,                                       !- Shading Control Name
  ,                                       !- Frame and Divider Name
  1,                                      !- Multiplier
  ,                                       !- Number of Vertices
  0, 39.5458713799669, 3.04785135876431,  !- X,Y,Z Vertex 1 {m}
  0, 39.5458713799669, 0,                 !- X,Y,Z Vertex 2 {m}
  0, 37.1075902929555, 0,                 !- X,Y,Z Vertex 3 {m}
  0, 37.1075902929555, 3.04785135876431;  !- X,Y,Z Vertex 4 {m}

OS:Surface,
  {eb38baf8-4819-4f38-99d7-de17082804a6}, !- Handle
  Fine Storage Floor,                     !- Name
  Floor,                                  !- Surface Type
  ,                                       !- Construction Name
  {cdd6a95f-f907-4c0e-817d-962525d358d0}, !- Space Name
  Ground,                                 !- Outside Boundary Condition
  ,                                       !- Outside Boundary Condition Object
  NoSun,                                  !- Sun Exposure
  NoWind,                                 !- Wind Exposure
  ,                                       !- View Factor to Ground
  ,                                       !- Number of Vertices
  45.7177703814647, 30.4785135876431, 0,  !- X,Y,Z Vertex 1 {m}
  45.7177703814647, 0, 0,                 !- X,Y,Z Vertex 2 {m}
  25.9067365494966, 0, 0,                 !- X,Y,Z Vertex 3 {m}
  25.9067365494966, 9.14355407629293, 0,  !- X,Y,Z Vertex 4 {m}
  0, 9.14355407629293, 0,                 !- X,Y,Z Vertex 5 {m}
  0, 30.4785135876431, 0;                 !- X,Y,Z Vertex 6 {m}

OS:SubSurface,
  {deca29f3-9920-47db-8341-dfaef5245578}, !- Handle
  Fine Storage Right Wall_Door,           !- Name
  Door,                                   !- Sub Surface Type
  ,                                       !- Construction Name
  {a0ba0fa9-aa51-4fbe-bdcc-bf0a22e397dd}, !- Surface Name
  ,                                       !- Outside Boundary Condition Object
  ,                                       !- View Factor to Ground
  ,                                       !- Shading Control Name
  ,                                       !- Frame and Divider Name
  1,                                      !- Multiplier
  ,                                       !- Number of Vertices
  45.7177703814647, 14.7820790900069, 2.13349595113502, !- X,Y,Z Vertex 1 {m}
  45.7177703814647, 14.7820790900069, 0,  !- X,Y,Z Vertex 2 {m}
  45.7177703814647, 15.6964344976362, 0,  !- X,Y,Z Vertex 3 {m}
  45.7177703814647, 15.6964344976362, 2.13349595113502; !- X,Y,Z Vertex 4 {m}

OS:Surface,
  {a0ba0fa9-aa51-4fbe-bdcc-bf0a22e397dd}, !- Handle
  Fine Storage Right Wall,                !- Name
  Wall,                                   !- Surface Type
  ,                                       !- Construction Name
  {cdd6a95f-f907-4c0e-817d-962525d358d0}, !- Space Name
  Outdoors,                               !- Outside Boundary Condition
  ,                                       !- Outside Boundary Condition Object
  SunExposed,                             !- Sun Exposure
  WindExposed,                            !- Wind Exposure
  ,                                       !- View Factor to Ground
  ,                                       !- Number of Vertices
  45.7177703814647, 0, 8.53398380454007,  !- X,Y,Z Vertex 1 {m}
  45.7177703814647, 0, 0,                 !- X,Y,Z Vertex 2 {m}
  45.7177703814647, 30.4785135876431, 0,  !- X,Y,Z Vertex 3 {m}
  45.7177703814647, 30.4785135876431, 8.53398380454007; !- X,Y,Z Vertex 4 {m}

OS:Surface,
  {dcc10c35-212a-4ba7-8909-e38fa0c8d3e8}, !- Handle
  Fine Storage Roof,                      !- Name
  RoofCeiling,                            !- Surface Type
  ,                                       !- Construction Name
  {cdd6a95f-f907-4c0e-817d-962525d358d0}, !- Space Name
  Outdoors,                               !- Outside Boundary Condition
  ,                                       !- Outside Boundary Condition Object
  SunExposed,                             !- Sun Exposure
  WindExposed,                            !- Wind Exposure
  ,                                       !- View Factor to Ground
  ,                                       !- Number of Vertices
  45.7177703814647, 0, 8.53398380454007,  !- X,Y,Z Vertex 1 {m}
  45.7177703814647, 30.4785135876431, 8.53398380454007, !- X,Y,Z Vertex 2 {m}
  0, 30.4785135876431, 8.53398380454007,  !- X,Y,Z Vertex 3 {m}
  0, 0, 8.53398380454007;                 !- X,Y,Z Vertex 4 {m}

OS:SubSurface,
  {1b2bce67-d0d6-4a6e-9c3c-4796cf73b0e2}, !- Handle
  Office Left Wall_FixedWindow,           !- Name
  FixedWindow,                            !- Sub Surface Type
  ,                                       !- Construction Name
  {af7ffab5-cb7d-4793-a68a-918ca67f7479}, !- Surface Name
  ,                                       !- Outside Boundary Condition Object
  ,                                       !- View Factor to Ground
  ,                                       !- Shading Control Name
  ,                                       !- Frame and Divider Name
  1,                                      !- Multiplier
  ,                                       !- Number of Vertices
  0, 7.51904930207155, 2.43929602151392,  !- X,Y,Z Vertex 1 {m}
  0, 7.51904930207155, 0.914355407629293, !- X,Y,Z Vertex 2 {m}
  0, 5.38555335093654, 0.914355407629293, !- X,Y,Z Vertex 3 {m}
  0, 5.38555335093654, 2.43929602151392;  !- X,Y,Z Vertex 4 {m}

OS:Surface,
  {af7ffab5-cb7d-4793-a68a-918ca67f7479}, !- Handle
  Office Left Wall,                       !- Name
  Wall,                                   !- Surface Type
  ,                                       !- Construction Name
  {12c3d4a0-20ec-4e1f-8040-e70cdfba4a69}, !- Space Name
  Outdoors,                               !- Outside Boundary Condition
  ,                                       !- Outside Boundary Condition Object
  SunExposed,                             !- Sun Exposure
  WindExposed,                            !- Wind Exposure
  ,                                       !- View Factor to Ground
  ,                                       !- Number of Vertices
  0, 9.14355407629293, 4.26699190227003,  !- X,Y,Z Vertex 1 {m}
  0, 9.14355407629293, 0,                 !- X,Y,Z Vertex 2 {m}
  0, 0, 0,                                !- X,Y,Z Vertex 3 {m}
  0, 0, 4.26699190227003;                 !- X,Y,Z Vertex 4 {m}

OS:Surface,
  {a966bae9-9301-4492-ae85-a3416cb9da09}, !- Handle
  Office Floor,                           !- Name
  Floor,                                  !- Surface Type
  ,                                       !- Construction Name
  {12c3d4a0-20ec-4e1f-8040-e70cdfba4a69}, !- Space Name
  Ground,                                 !- Outside Boundary Condition
  ,                                       !- Outside Boundary Condition Object
  NoSun,                                  !- Sun Exposure
  NoWind,                                 !- Wind Exposure
  ,                                       !- View Factor to Ground
  ,                                       !- Number of Vertices
  25.9067365494966, 9.14355407629293, 0,  !- X,Y,Z Vertex 1 {m}
  25.9067365494966, 0, 0,                 !- X,Y,Z Vertex 2 {m}
  0, 0, 0,                                !- X,Y,Z Vertex 3 {m}
  0, 9.14355407629293, 0;                 !- X,Y,Z Vertex 4 {m}

OS:Surface,
  {7f4aebb1-9044-44cb-91ee-e1a559b436a0}, !- Handle
  Office Right Wall,                      !- Name
  Wall,                                   !- Surface Type
  ,                                       !- Construction Name
  {12c3d4a0-20ec-4e1f-8040-e70cdfba4a69}, !- Space Name
  Surface,                                !- Outside Boundary Condition
  {12dbc2fb-3517-42f9-9f00-f6147aaade5b}, !- Outside Boundary Condition Object
  NoSun,                                  !- Sun Exposure
  NoWind,                                 !- Wind Exposure
  ,                                       !- View Factor to Ground
  ,                                       !- Number of Vertices
  25.9067365494966, 0, 4.26699190227003,  !- X,Y,Z Vertex 1 {m}
  25.9067365494966, 0, 0,                 !- X,Y,Z Vertex 2 {m}
  25.9067365494966, 9.14355407629293, 0,  !- X,Y,Z Vertex 3 {m}
  25.9067365494966, 9.14355407629293, 4.26699190227003; !- X,Y,Z Vertex 4 {m}

OS:Surface,
  {12dbc2fb-3517-42f9-9f00-f6147aaade5b}, !- Handle
  Office Right Wall Reversed,             !- Name
  Wall,                                   !- Surface Type
  ,                                       !- Construction Name
  {cdd6a95f-f907-4c0e-817d-962525d358d0}, !- Space Name
  Surface,                                !- Outside Boundary Condition
  {7f4aebb1-9044-44cb-91ee-e1a559b436a0}, !- Outside Boundary Condition Object
  NoSun,                                  !- Sun Exposure
  NoWind,                                 !- Wind Exposure
  ,                                       !- View Factor to Ground
  ,                                       !- Number of Vertices
  25.9067365494966, 9.14355407629293, 4.26699190227003, !- X,Y,Z Vertex 1 {m}
  25.9067365494966, 9.14355407629293, 0,  !- X,Y,Z Vertex 2 {m}
  25.9067365494966, 0, 0,                 !- X,Y,Z Vertex 3 {m}
  25.9067365494966, 0, 4.26699190227003;  !- X,Y,Z Vertex 4 {m}

OS:SubSurface,
  {ae336c51-d6bc-43de-b204-2d60f16d3d8e}, !- Handle
  Office Front Wall_Door,                 !- Name
  Door,                                   !- Sub Surface Type
  ,                                       !- Construction Name
  {a722f50f-fda4-4b2c-843f-44ea72a832c9}, !- Surface Name
  ,                                       !- Outside Boundary Condition Object
  ,                                       !- View Factor to Ground
  ,                                       !- Shading Control Name
  ,                                       !- Frame and Divider Name
  1,                                      !- Multiplier
  ,                                       !- Number of Vertices
  12.039012867119, 0, 2.13349595113502,   !- X,Y,Z Vertex 1 {m}
  12.039012867119, 0, 0,                  !- X,Y,Z Vertex 2 {m}
  13.8677236823776, 0, 0,                 !- X,Y,Z Vertex 3 {m}
  13.8677236823776, 0, 2.13349595113502;  !- X,Y,Z Vertex 4 {m}

OS:Surface,
  {a722f50f-fda4-4b2c-843f-44ea72a832c9}, !- Handle
  Office Front Wall,                      !- Name
  Wall,                                   !- Surface Type
  ,                                       !- Construction Name
  {12c3d4a0-20ec-4e1f-8040-e70cdfba4a69}, !- Space Name
  Outdoors,                               !- Outside Boundary Condition
  ,                                       !- Outside Boundary Condition Object
  SunExposed,                             !- Sun Exposure
  WindExposed,                            !- Wind Exposure
  ,                                       !- View Factor to Ground
  ,                                       !- Number of Vertices
  0, 0, 4.26699190227003,                 !- X,Y,Z Vertex 1 {m}
  0, 0, 0,                                !- X,Y,Z Vertex 2 {m}
  25.9067365494966, 0, 0,                 !- X,Y,Z Vertex 3 {m}
  25.9067365494966, 0, 4.26699190227003;  !- X,Y,Z Vertex 4 {m}

OS:SubSurface,
  {ddb38950-c035-4666-b655-f318ba7f0342}, !- Handle
  Bulk Storage Left Wall_Door 1,          !- Name
  Door,                                   !- Sub Surface Type
  ,                                       !- Construction Name
  {2eb36d53-8956-4573-9d42-f3de2486a693}, !- Surface Name
  ,                                       !- Outside Boundary Condition Object
  ,                                       !- View Factor to Ground
  ,                                       !- Shading Control Name
  ,                                       !- Frame and Divider Name
  1,                                      !- Multiplier
  ,                                       !- Number of Vertices
  0, 84.882660341586, 3.04785135876431,   !- X,Y,Z Vertex 1 {m}
  0, 84.882660341586, 0,                  !- X,Y,Z Vertex 2 {m}
  0, 82.4443792545746, 0,                 !- X,Y,Z Vertex 3 {m}
  0, 82.4443792545746, 3.04785135876431;  !- X,Y,Z Vertex 4 {m}

OS:Surface,
  {2ce21271-4aa0-4b4e-af87-47994c8beac1}, !- Handle
  Bulk Storage Front Wall,                !- Name
  Wall,                                   !- Surface Type
  ,                                       !- Construction Name
  {39655c19-15b3-4081-92c2-4613ae84d8e6}, !- Space Name
  Surface,                                !- Outside Boundary Condition
  {139e955e-746e-43dc-9033-026507021b5a}, !- Outside Boundary Condition Object
  NoSun,                                  !- Sun Exposure
  NoWind,                                 !- Wind Exposure
  ,                                       !- View Factor to Ground
  ,                                       !- Number of Vertices
  45.7177703814647, 30.4785135876431, 8.53398380454007, !- X,Y,Z Vertex 1 {m}
  45.7177703814647, 30.4785135876431, 0,  !- X,Y,Z Vertex 2 {m}
  0, 30.4785135876431, 0,                 !- X,Y,Z Vertex 3 {m}
  0, 30.4785135876431, 8.53398380454007;  !- X,Y,Z Vertex 4 {m}

OS:Surface,
  {139e955e-746e-43dc-9033-026507021b5a}, !- Handle
  Bulk Storage Front Wall Reversed,       !- Name
  Wall,                                   !- Surface Type
  ,                                       !- Construction Name
  {cdd6a95f-f907-4c0e-817d-962525d358d0}, !- Space Name
  Surface,                                !- Outside Boundary Condition
  {2ce21271-4aa0-4b4e-af87-47994c8beac1}, !- Outside Boundary Condition Object
  NoSun,                                  !- Sun Exposure
  NoWind,                                 !- Wind Exposure
  ,                                       !- View Factor to Ground
  ,                                       !- Number of Vertices
  0, 30.4785135876431, 8.53398380454007,  !- X,Y,Z Vertex 1 {m}
  0, 30.4785135876431, 0,                 !- X,Y,Z Vertex 2 {m}
  45.7177703814647, 30.4785135876431, 0,  !- X,Y,Z Vertex 3 {m}
  45.7177703814647, 30.4785135876431, 8.53398380454007; !- X,Y,Z Vertex 4 {m}

OS:SubSurface,
  {bfd58ce8-1370-448e-89bc-dc1d1aa79552}, !- Handle
  Office Front Wall_FixedWindow 1,        !- Name
  FixedWindow,                            !- Sub Surface Type
  ,                                       !- Construction Name
  {a722f50f-fda4-4b2c-843f-44ea72a832c9}, !- Surface Name
  ,                                       !- Outside Boundary Condition Object
  ,                                       !- View Factor to Ground
  ,                                       !- Shading Control Name
  ,                                       !- Frame and Divider Name
  1,                                      !- Multiplier
  ,                                       !- Number of Vertices
  18.5918932884623, 0, 2.43929602151392,  !- X,Y,Z Vertex 1 {m}
  18.5918932884623, 0, 0.914355407629293, !- X,Y,Z Vertex 2 {m}
  22.2493149189795, 0, 0.914355407629293, !- X,Y,Z Vertex 3 {m}
  22.2493149189795, 0, 2.43929602151392;  !- X,Y,Z Vertex 4 {m}

OS:Surface,
  {145bfd04-ce48-4581-a2a9-e8970362044f}, !- Handle
  Fine Storage Office Left Wall,          !- Name
  Wall,                                   !- Surface Type
  ,                                       !- Construction Name
  {cdd6a95f-f907-4c0e-817d-962525d358d0}, !- Space Name
  Outdoors,                               !- Outside Boundary Condition
  ,                                       !- Outside Boundary Condition Object
  SunExposed,                             !- Sun Exposure
  WindExposed,                            !- Wind Exposure
  ,                                       !- View Factor to Ground
  ,                                       !- Number of Vertices